version 2
1
2
.dc V3 0 5 100m{return}.kicad adjustpaths{return}.save all{return}.probe alli
3
2
I(D1)
 
1
V(Net-_D1-K_)
 
1
V(Net-_U2--_)
 
