version 2
1
2
.dc V3 0 5 10m{return}.kicad adjustpaths{return}.save all{return}.probe alli
3
2
I(R2)
 
1
V(Net-_Q1-D_)
 
1
V(Net-_Q1-G_)
 
