version 2
2
2
.dc V3 0 5 10m{return}{return}.kicad adjustpaths{return}.save all{return}.probe alli
0
9
.tran 1n 1{return}.kicad adjustpaths{return}.save all{return}.probe alli
0
